
 OpenBabel10271818153D
CORINA 4.1.0 0026  10.08.2017
 13 13  0  0  0  0  0  0  0  0999 V2000
   -1.1684   -0.8656    0.0033 C   0  0  0  0  0  0  0  0  0  0  0  0
   -0.0089    0.0095    0.0218 N   0  0  0  0  0  0  0  0  0  0  0  0
   -0.0413    1.4012    0.0153 C   0  0  0  0  0  0  0  0  0  0  0  0
    1.2397    1.8412   -0.0047 C   0  0  0  0  0  0  0  0  0  0  0  0
    2.0415    0.7099   -0.0160 N   0  0  0  0  0  0  0  0  0  0  0  0
    3.0497    0.6764   -0.0293 H   0  0  0  0  0  0  0  0  0  0  0  0
    1.2927   -0.4410   -0.0048 C   0  0  0  0  0  0  0  0  0  0  0  0
    1.8594   -2.0212   -0.0198 S   0  0  0  0  0  0  0  0  0  0  0  0
   -1.4707   -1.0944   -1.0247 H   0  0  0  0  0  0  0  0  0  0  0  0
   -0.9042   -1.7986    0.5042 H   0  0  0  0  0  0  0  0  0  0  0  0
   -1.9941   -0.3780    0.5276 H   0  0  0  0  0  0  0  0  0  0  0  0
   -0.9716    1.9475    0.0306 H   0  0  0  0  0  0  0  0  0  0  0  0
    1.6442    2.8408   -0.0069 H   0  0  0  0  0  0  0  0  0  0  0  0
  1  2  1  0  0  0  0
  1  9  1  0  0  0  0
  1 10  1  0  0  0  0
  1 11  1  0  0  0  0
  2  7  1  0  0  0  0
  2  3  1  0  0  0  0
  3  4  2  0  0  0  0
  3 12  1  0  0  0  0
  4  5  1  0  0  0  0
  4 13  1  0  0  0  0
  5  6  1  0  0  0  0
  5  7  1  0  0  0  0
  7  8  2  0  0  0  0
M  END
$$$$
